data_CELLMUNCHER


_pd_phase_name                         'Super Cell'
_cell_length_a                         196.635 
_cell_length_b                         160.56 
_cell_length_c                         213.574 
_cell_angle_alpha                      90.0000 
_cell_angle_beta                       90.0000 
_cell_angle_gamma                      90.0000 
_symmetry_space_group_name_H-M         'P 1'
_symmetry_Int_Tables_number            1

loop_
_symmetry_equiv_pos_as_xyz
   'x, y, z'


loop_
   _atom_site_label
   _atom_site_occupancy
   _atom_site_fract_x
   _atom_site_fract_y
   _atom_site_fract_z
   _atom_site_thermal_displace_type
   _atom_site_B_iso_or_equiv
   _atom_site_type_symbol
 Fe   1.0000  0.0000  0.5147  0.5444   Biso    0.0050 Fe
 Fe   1.0000  0.0250  0.4639  0.5908   Biso    0.0050 Fe
 Fe   1.0000  0.0257  0.2983  0.6182   Biso    0.0050 Fe
 Fe   1.0000  0.0294  0.6002  0.6256   Biso    0.0050 Fe
 Fe   1.0000  0.0380  0.5722  0.5446   Biso    0.0050 Fe
 Fe   1.0000  0.0382  0.4868  0.7481   Biso    0.0050 Fe
 Fe   1.0000  0.0440  0.6280  0.5275   Biso    0.0050 Fe
 Fe   1.0000  0.0551  0.2062  0.4009   Biso    0.0050 Fe
 Fe   1.0000  0.0610  0.5745  0.5073   Biso    0.0050 Fe
 Fe   1.0000  0.0676  0.7028  0.5464   Biso    0.0050 Fe
 Fe   1.0000  0.0678  0.4744  0.7285   Biso    0.0050 Fe
 Fe   1.0000  0.0697  0.7366  0.6597   Biso    0.0050 Fe
 Fe   1.0000  0.0728  0.1889  0.5803   Biso    0.0050 Fe
 Fe   1.0000  0.0760  0.7222  0.4684   Biso    0.0050 Fe
 Fe   1.0000  0.0779  0.6111  0.3102   Biso    0.0050 Fe
 Fe   1.0000  0.0817  0.5361  0.7016   Biso    0.0050 Fe
 Fe   1.0000  0.0823  0.4438  0.4409   Biso    0.0050 Fe
 Fe   1.0000  0.0874  0.3671  0.6536   Biso    0.0050 Fe
 Fe   1.0000  0.0914  0.4994  0.5540   Biso    0.0050 Fe
 Fe   1.0000  0.1078  0.4253  0.8029   Biso    0.0050 Fe
 Fe   1.0000  0.1084  0.4375  0.4029   Biso    0.0050 Fe
 Fe   1.0000  0.1117  0.3680  0.4810   Biso    0.0050 Fe
 Fe   1.0000  0.1119  0.4797  0.7434   Biso    0.0050 Fe
 Fe   1.0000  0.1125  0.1587  0.6606   Biso    0.0050 Fe
 Fe   1.0000  0.1138  0.6750  0.3109   Biso    0.0050 Fe
 Fe   1.0000  0.1163  0.6518  0.2427   Biso    0.0050 Fe
 Fe   1.0000  0.1164  0.4475  0.6662   Biso    0.0050 Fe
 Fe   1.0000  0.1186  0.2702  0.3502   Biso    0.0050 Fe
 Fe   1.0000  0.1191  0.3407  0.4009   Biso    0.0050 Fe
 Fe   1.0000  0.1196  0.6026  0.7775   Biso    0.0050 Fe
 Fe   1.0000  0.1201  0.4410  0.4874   Biso    0.0050 Fe
 Fe   1.0000  0.1233  0.6330  0.5466   Biso    0.0050 Fe
 Fe   1.0000  0.1262  0.3774  0.6055   Biso    0.0050 Fe
 Fe   1.0000  0.1278  0.5211  0.4712   Biso    0.0050 Fe
 Fe   1.0000  0.1300  0.9297  0.4631   Biso    0.0050 Fe
 Fe   1.0000  0.1301  0.5539  0.7744   Biso    0.0050 Fe
 Fe   1.0000  0.1307  0.5516  0.6242   Biso    0.0050 Fe
 Fe   1.0000  0.1314  0.7668  0.5824   Biso    0.0050 Fe
 Fe   1.0000  0.1338  0.5048  0.7786   Biso    0.0050 Fe
 Fe   1.0000  0.1370  0.5982  0.7364   Biso    0.0050 Fe
 Fe   1.0000  0.1427  0.4545  0.6275   Biso    0.0050 Fe
 Fe   1.0000  0.1430  0.5232  0.6825   Biso    0.0050 Fe
 Fe   1.0000  0.1452  0.2168  0.5994   Biso    0.0050 Fe
 Fe   1.0000  0.1553  0.6241  0.6419   Biso    0.0050 Fe
 Fe   1.0000  0.1586  0.5614  0.5908   Biso    0.0050 Fe
 Fe   1.0000  0.1596  0.3235  0.5611   Biso    0.0050 Fe
 Fe   1.0000  0.1625  0.7534  0.4621   Biso    0.0050 Fe
 Fe   1.0000  0.1626  0.6107  0.5679   Biso    0.0050 Fe
 Fe   1.0000  0.1641  0.3799  0.4017   Biso    0.0050 Fe
 Fe   1.0000  0.1647  0.6075  0.4691   Biso    0.0050 Fe
 Fe   1.0000  0.1701  0.2304  0.3644   Biso    0.0050 Fe
 Fe   1.0000  0.1706  0.4798  0.3869   Biso    0.0050 Fe
 Fe   1.0000  0.1711  0.1789  0.5146   Biso    0.0050 Fe
 Fe   1.0000  0.1713  0.9135  0.6108   Biso    0.0050 Fe
 Fe   1.0000  0.1744  0.6387  0.3418   Biso    0.0050 Fe
 Fe   1.0000  0.1745  0.3696  0.6718   Biso    0.0050 Fe
 Fe   1.0000  0.1747  0.4572  0.7259   Biso    0.0050 Fe
 Fe   1.0000  0.1766  0.2803  0.4114   Biso    0.0050 Fe
 Fe   1.0000  0.1768  0.8469  0.6101   Biso    0.0050 Fe
 Fe   1.0000  0.1817  0.7818  0.5031   Biso    0.0050 Fe
 Fe   1.0000  0.1826  0.3286  0.3849   Biso    0.0050 Fe
 Fe   1.0000  0.1828  0.3521  0.5929   Biso    0.0050 Fe
 Fe   1.0000  0.1833  0.6176  0.2611   Biso    0.0050 Fe
 Fe   1.0000  0.1836  0.4311  0.7821   Biso    0.0050 Fe
 Fe   1.0000  0.1850  0.5162  0.7237   Biso    0.0050 Fe
 Fe   1.0000  0.1853  0.2166  0.4704   Biso    0.0050 Fe
 Fe   1.0000  0.1866  0.6468  0.6008   Biso    0.0050 Fe
 Fe   1.0000  0.1866  0.3418  0.4612   Biso    0.0050 Fe
 Fe   1.0000  0.1887  0.2062  0.7357   Biso    0.0050 Fe
 Fe   1.0000  0.1903  0.3705  0.3683   Biso    0.0050 Fe
 Fe   1.0000  0.1924  0.8016  0.6258   Biso    0.0050 Fe
 Fe   1.0000  0.1928  0.7333  0.6140   Biso    0.0050 Fe
 Fe   1.0000  0.1970  0.4912  0.7659   Biso    0.0050 Fe
 Fe   1.0000  0.1983  0.3028  0.5843   Biso    0.0050 Fe
 Fe   1.0000  0.2005  0.4379  0.4776   Biso    0.0050 Fe
 Fe   1.0000  0.2028  0.2797  0.3671   Biso    0.0050 Fe
 Fe   1.0000  0.2038  0.2058  0.3870   Biso    0.0050 Fe
 Fe   1.0000  0.2087  0.6301  0.2226   Biso    0.0050 Fe
 Fe   1.0000  0.2088  0.2246  0.5162   Biso    0.0050 Fe
 Fe   1.0000  0.2092  0.4955  0.4579   Biso    0.0050 Fe
 Fe   1.0000  0.2095  0.4377  0.7511   Biso    0.0050 Fe
 Fe   1.0000  0.2108  0.3811  0.7689   Biso    0.0050 Fe
 Fe   1.0000  0.2131  0.4877  0.5950   Biso    0.0050 Fe
 Fe   1.0000  0.2152  0.6151  0.6057   Biso    0.0050 Fe
 Fe   1.0000  0.2161  0.3528  0.4874   Biso    0.0050 Fe
 Fe   1.0000  0.2162  0.3885  0.5491   Biso    0.0050 Fe
 Fe   1.0000  0.2188  0.6034  0.7214   Biso    0.0050 Fe
 Fe   1.0000  0.2194  0.5466  0.5726   Biso    0.0050 Fe
 Fe   1.0000  0.2195  0.6801  0.3332   Biso    0.0050 Fe
 Fe   1.0000  0.2200  0.5703  0.7741   Biso    0.0050 Fe
 Fe   1.0000  0.2217  0.7546  0.5279   Biso    0.0050 Fe
 Fe   1.0000  0.2218  0.4568  0.5157   Biso    0.0050 Fe
 Fe   1.0000  0.2227  0.1188  0.8630   Biso    0.0050 Fe
 Fe   1.0000  0.2228  0.4537  0.8534   Biso    0.0050 Fe
 Fe   1.0000  0.2231  0.4082  0.6783   Biso    0.0050 Fe
 Fe   1.0000  0.2232  0.6674  0.4664   Biso    0.0050 Fe
 Fe   1.0000  0.2242  0.5532  0.7165   Biso    0.0050 Fe
 Fe   1.0000  0.2257  0.8218  0.6385   Biso    0.0050 Fe
 Fe   1.0000  0.2258  0.1760  0.6428   Biso    0.0050 Fe
 Fe   1.0000  0.2265  0.2302  0.8598   Biso    0.0050 Fe
 Fe   1.0000  0.2274  0.7336  0.4504   Biso    0.0050 Fe
 Fe   1.0000  0.2283  0.4661  0.3746   Biso    0.0050 Fe
 Fe   1.0000  0.2315  0.5261  0.6277   Biso    0.0050 Fe
 Fe   1.0000  0.2326  0.5138  0.3578   Biso    0.0050 Fe
 Fe   1.0000  0.2344  0.2817  0.4652   Biso    0.0050 Fe
 Fe   1.0000  0.2344  0.7047  0.5141   Biso    0.0050 Fe
 Fe   1.0000  0.2357  0.6667  0.6128   Biso    0.0050 Fe
 Fe   1.0000  0.2389  0.1364  0.6763   Biso    0.0050 Fe
 Fe   1.0000  0.2400  0.5766  0.6137   Biso    0.0050 Fe
 Fe   1.0000  0.2411  0.4754  0.3405   Biso    0.0050 Fe
 Fe   1.0000  0.2442  0.7559  0.3538   Biso    0.0050 Fe
 Fe   1.0000  0.2475  0.5200  0.7685   Biso    0.0050 Fe
 Fe   1.0000  0.2496  0.7679  0.6124   Biso    0.0050 Fe
 Fe   1.0000  0.2539  0.7289  0.2776   Biso    0.0050 Fe
 Fe   1.0000  0.2563  0.4396  0.5369   Biso    0.0050 Fe
 Fe   1.0000  0.2564  0.8577  0.6697   Biso    0.0050 Fe
 Fe   1.0000  0.2564  0.8197  0.5697   Biso    0.0050 Fe
 Fe   1.0000  0.2565  0.3639  0.7659   Biso    0.0050 Fe
 Fe   1.0000  0.2576  0.7057  0.3611   Biso    0.0050 Fe
 Fe   1.0000  0.2578  0.1983  0.4862   Biso    0.0050 Fe
 Fe   1.0000  0.2587  0.2375  0.5837   Biso    0.0050 Fe
 Fe   1.0000  0.2587  0.4200  0.7693   Biso    0.0050 Fe
 Fe   1.0000  0.2609  0.7850  0.6662   Biso    0.0050 Fe
 Fe   1.0000  0.2613  0.2776  0.5591   Biso    0.0050 Fe
 Fe   1.0000  0.2623  0.2928  0.4250   Biso    0.0050 Fe
 Fe   1.0000  0.2627  0.4321  0.3134   Biso    0.0050 Fe
 Fe   1.0000  0.2628  0.7550  0.5524   Biso    0.0050 Fe
 Fe   1.0000  0.2640  0.6387  0.1467   Biso    0.0050 Fe
 Fe   1.0000  0.2640  0.8680  0.5785   Biso    0.0050 Fe
 Fe   1.0000  0.2647  0.5224  0.7243   Biso    0.0050 Fe
 Fe   1.0000  0.2648  0.5479  0.3602   Biso    0.0050 Fe
 Fe   1.0000  0.2649  0.6611  0.7277   Biso    0.0050 Fe
 Fe   1.0000  0.2652  0.2759  0.6960   Biso    0.0050 Fe
 Fe   1.0000  0.2661  0.3561  0.6157   Biso    0.0050 Fe
 Fe   1.0000  0.2665  0.6453  0.4910   Biso    0.0050 Fe
 Fe   1.0000  0.2687  0.2637  0.4853   Biso    0.0050 Fe
 Fe   1.0000  0.2712  0.4941  0.6510   Biso    0.0050 Fe
 Fe   1.0000  0.2732  0.5507  0.1488   Biso    0.0050 Fe
 Fe   1.0000  0.2734  0.5465  0.4902   Biso    0.0050 Fe
 Fe   1.0000  0.2734  0.8056  0.7237   Biso    0.0050 Fe
 Fe   1.0000  0.2742  0.4557  0.6806   Biso    0.0050 Fe
 Fe   1.0000  0.2750  0.5735  0.7238   Biso    0.0050 Fe
 Fe   1.0000  0.2757  0.4729  0.5730   Biso    0.0050 Fe
 Fe   1.0000  0.2761  0.6283  0.6846   Biso    0.0050 Fe
 Fe   1.0000  0.2780  0.1779  0.7020   Biso    0.0050 Fe
 Fe   1.0000  0.2791  0.7371  0.5055   Biso    0.0050 Fe
 Fe   1.0000  0.2800  0.9014  0.6503   Biso    0.0050 Fe
 Fe   1.0000  0.2830  0.3167  0.7758   Biso    0.0050 Fe
 Fe   1.0000  0.2836  0.4746  0.7751   Biso    0.0050 Fe
 Fe   1.0000  0.2841  0.5639  0.7627   Biso    0.0050 Fe
 Fe   1.0000  0.2845  0.6548  0.7577   Biso    0.0050 Fe
 Fe   1.0000  0.2848  0.8534  0.6398   Biso    0.0050 Fe
 Fe   1.0000  0.2849  0.3098  0.6654   Biso    0.0050 Fe
 Fe   1.0000  0.2850  0.4450  0.4972   Biso    0.0050 Fe
 Fe   1.0000  0.2859  0.2197  0.5488   Biso    0.0050 Fe
 Fe   1.0000  0.2860  0.1286  0.7060   Biso    0.0050 Fe
 Fe   1.0000  0.2868  0.7064  0.7224   Biso    0.0050 Fe
 Fe   1.0000  0.2885  0.7989  0.6279   Biso    0.0050 Fe
 Fe   1.0000  0.2885  0.4701  0.3635   Biso    0.0050 Fe
 Fe   1.0000  0.2894  0.7018  0.6673   Biso    0.0050 Fe
 Fe   1.0000  0.2910  0.8795  0.5400   Biso    0.0050 Fe
 Fe   1.0000  0.2924  0.6051  0.1618   Biso    0.0050 Fe
 Fe   1.0000  0.2937  0.4732  0.4053   Biso    0.0050 Fe
 Fe   1.0000  0.2947  0.7730  0.2734   Biso    0.0050 Fe
 Fe   1.0000  0.2952  0.5680  0.6714   Biso    0.0050 Fe
 Fe   1.0000  0.2956  0.4208  0.4201   Biso    0.0050 Fe
 Fe   1.0000  0.2961  0.3609  0.7771   Biso    0.0050 Fe
 Fe   1.0000  0.2971  0.4727  0.7153   Biso    0.0050 Fe
 Fe   1.0000  0.2977  0.2715  0.4452   Biso    0.0050 Fe
 Fe   1.0000  0.2979  0.3332  0.3657   Biso    0.0050 Fe
 Fe   1.0000  0.2990  0.6303  0.7222   Biso    0.0050 Fe
 Fe   1.0000  0.3014  0.8432  0.6061   Biso    0.0050 Fe
 Fe   1.0000  0.3014  0.6808  0.3594   Biso    0.0050 Fe
 Fe   1.0000  0.3015  0.5018  0.4980   Biso    0.0050 Fe
 Fe   1.0000  0.3019  0.5686  0.4139   Biso    0.0050 Fe
 Fe   1.0000  0.3031  0.8173  0.5336   Biso    0.0050 Fe
 Fe   1.0000  0.3035  0.3655  0.7046   Biso    0.0050 Fe
 Fe   1.0000  0.3039  0.6238  0.3687   Biso    0.0050 Fe
 Fe   1.0000  0.3056  0.7373  0.7404   Biso    0.0050 Fe
 Fe   1.0000  0.3057  0.6355  0.6450   Biso    0.0050 Fe
 Fe   1.0000  0.3060  0.2364  0.7839   Biso    0.0050 Fe
 Fe   1.0000  0.3065  0.5249  0.3838   Biso    0.0050 Fe
 Fe   1.0000  0.3080  0.3356  0.6360   Biso    0.0050 Fe
 Fe   1.0000  0.3097  0.7380  0.4716   Biso    0.0050 Fe
 Fe   1.0000  0.3104  0.3900  0.6209   Biso    0.0050 Fe
 Fe   1.0000  0.3124  0.4930  0.2701   Biso    0.0050 Fe
 Fe   1.0000  0.3135  0.4309  0.2507   Biso    0.0050 Fe
 Fe   1.0000  0.3140  0.5829  0.4935   Biso    0.0050 Fe
 Fe   1.0000  0.3161  0.2686  0.3520   Biso    0.0050 Fe
 Fe   1.0000  0.3162  0.7474  0.7017   Biso    0.0050 Fe
 Fe   1.0000  0.3164  0.4400  0.4611   Biso    0.0050 Fe
 Fe   1.0000  0.3191  0.6593  0.5486   Biso    0.0050 Fe
 Fe   1.0000  0.3200  0.3139  0.7052   Biso    0.0050 Fe
 Fe   1.0000  0.3206  0.5657  0.3090   Biso    0.0050 Fe
 Fe   1.0000  0.3209  0.7392  0.6520   Biso    0.0050 Fe
 Fe   1.0000  0.3216  0.6682  0.6852   Biso    0.0050 Fe
 Fe   1.0000  0.3216  0.6939  0.7373   Biso    0.0050 Fe
 Fe   1.0000  0.3225  0.1440  0.6962   Biso    0.0050 Fe
 Fe   1.0000  0.3230  0.5721  0.7503   Biso    0.0050 Fe
 Fe   1.0000  0.3241  0.4820  0.6121   Biso    0.0050 Fe
 Fe   1.0000  0.3253  0.5477  0.6944   Biso    0.0050 Fe
 Fe   1.0000  0.3267  0.2169  0.4895   Biso    0.0050 Fe
 Fe   1.0000  0.3269  0.2568  0.4077   Biso    0.0050 Fe
 Fe   1.0000  0.3282  0.7331  0.5281   Biso    0.0050 Fe
 Fe   1.0000  0.3293  0.1932  0.3577   Biso    0.0050 Fe
 Fe   1.0000  0.3301  0.2700  0.7261   Biso    0.0050 Fe
 Fe   1.0000  0.3327  0.7947  0.6391   Biso    0.0050 Fe
 Fe   1.0000  0.3330  0.8292  0.8268   Biso    0.0050 Fe
 Fe   1.0000  0.3333  0.4970  0.6922   Biso    0.0050 Fe
 Fe   1.0000  0.3336  0.1162  0.8086   Biso    0.0050 Fe
 Fe   1.0000  0.3337  0.6266  0.7415   Biso    0.0050 Fe
 Fe   1.0000  0.3344  0.4327  0.3631   Biso    0.0050 Fe
 Fe   1.0000  0.3359  0.5260  0.1309   Biso    0.0050 Fe
 Fe   1.0000  0.3364  0.4837  0.3628   Biso    0.0050 Fe
 Fe   1.0000  0.3386  0.2260  0.3209   Biso    0.0050 Fe
 Fe   1.0000  0.3390  0.4872  0.7691   Biso    0.0050 Fe
 Fe   1.0000  0.3392  0.3026  0.3140   Biso    0.0050 Fe
 Fe   1.0000  0.3398  0.3822  0.3675   Biso    0.0050 Fe
 Fe   1.0000  0.3417  0.6217  0.5292   Biso    0.0050 Fe
 Fe   1.0000  0.3421  0.6284  0.6712   Biso    0.0050 Fe
 Fe   1.0000  0.3424  0.7469  0.5643   Biso    0.0050 Fe
 Fe   1.0000  0.3431  0.2131  0.3941   Biso    0.0050 Fe
 Fe   1.0000  0.3438  0.5320  0.3468   Biso    0.0050 Fe
 Fe   1.0000  0.3444  0.7038  0.6788   Biso    0.0050 Fe
 Fe   1.0000  0.3446  0.4198  0.7006   Biso    0.0050 Fe
 Fe   1.0000  0.3448  0.2133  0.7386   Biso    0.0050 Fe
 Fe   1.0000  0.3449  0.8570  0.5188   Biso    0.0050 Fe
 Fe   1.0000  0.3451  0.5346  0.6100   Biso    0.0050 Fe
 Fe   1.0000  0.3469  0.1479  0.4175   Biso    0.0050 Fe
 Fe   1.0000  0.3470  0.5503  0.4715   Biso    0.0050 Fe
 Fe   1.0000  0.3477  0.1488  0.6573   Biso    0.0050 Fe
 Fe   1.0000  0.3479  0.7874  0.6702   Biso    0.0050 Fe
 Fe   1.0000  0.3509  0.3716  0.6356   Biso    0.0050 Fe
 Fe   1.0000  0.3540  0.2182  0.8035   Biso    0.0050 Fe
 Fe   1.0000  0.3542  0.3455  0.5498   Biso    0.0050 Fe
 Fe   1.0000  0.3543  0.4057  0.2682   Biso    0.0050 Fe
 Fe   1.0000  0.3544  0.6778  0.1470   Biso    0.0050 Fe
 Fe   1.0000  0.3545  0.1708  0.7573   Biso    0.0050 Fe
 Fe   1.0000  0.3546  0.5743  0.3757   Biso    0.0050 Fe
 Fe   1.0000  0.3548  0.6351  0.0892   Biso    0.0050 Fe
 Fe   1.0000  0.3549  0.2437  0.7025   Biso    0.0050 Fe
 Fe   1.0000  0.3550  0.4290  0.6185   Biso    0.0050 Fe
 Fe   1.0000  0.3555  0.2738  0.5074   Biso    0.0050 Fe
 Fe   1.0000  0.3561  0.8039  0.5244   Biso    0.0050 Fe
 Fe   1.0000  0.3566  0.6846  0.0674   Biso    0.0050 Fe
 Fe   1.0000  0.3567  0.2031  0.6806   Biso    0.0050 Fe
 Fe   1.0000  0.3583  0.8962  0.5061   Biso    0.0050 Fe
 Fe   1.0000  0.3583  0.6417  0.3590   Biso    0.0050 Fe
 Fe   1.0000  0.3594  0.4854  0.4580   Biso    0.0050 Fe
 Fe   1.0000  0.3597  0.4063  0.4046   Biso    0.0050 Fe
 Fe   1.0000  0.3611  0.7588  0.6038   Biso    0.0050 Fe
 Fe   1.0000  0.3615  0.2810  0.6313   Biso    0.0050 Fe
 Fe   1.0000  0.3616  0.3507  0.7024   Biso    0.0050 Fe
 Fe   1.0000  0.3631  0.3304  0.4895   Biso    0.0050 Fe
 Fe   1.0000  0.3644  0.2779  0.2472   Biso    0.0050 Fe
 Fe   1.0000  0.3650  0.7575  0.3806   Biso    0.0050 Fe
 Fe   1.0000  0.3673  0.7248  0.6571   Biso    0.0050 Fe
 Fe   1.0000  0.3673  0.4053  0.6679   Biso    0.0050 Fe
 Fe   1.0000  0.3707  0.8426  0.6323   Biso    0.0050 Fe
 Fe   1.0000  0.3713  0.6427  0.1270   Biso    0.0050 Fe
 Fe   1.0000  0.3714  0.7155  0.8248   Biso    0.0050 Fe
 Fe   1.0000  0.3715  0.8091  0.3697   Biso    0.0050 Fe
 Fe   1.0000  0.3730  0.1524  0.8164   Biso    0.0050 Fe
 Fe   1.0000  0.3735  0.9426  0.5019   Biso    0.0050 Fe
 Fe   1.0000  0.3749  0.3305  0.6247   Biso    0.0050 Fe
 Fe   1.0000  0.3773  0.1459  0.5964   Biso    0.0050 Fe
 Fe   1.0000  0.3773  0.8629  0.6921   Biso    0.0050 Fe
 Fe   1.0000  0.3773  0.5642  0.2037   Biso    0.0050 Fe
 Fe   1.0000  0.3783  0.1982  0.6434   Biso    0.0050 Fe
 Fe   1.0000  0.3798  0.1425  0.7291   Biso    0.0050 Fe
 Fe   1.0000  0.3804  0.2989  0.5451   Biso    0.0050 Fe
 Fe   1.0000  0.3805  0.8380  0.4928   Biso    0.0050 Fe
 Fe   1.0000  0.3813  0.3389  0.2654   Biso    0.0050 Fe
 Fe   1.0000  0.3833  0.5094  0.6318   Biso    0.0050 Fe
 Fe   1.0000  0.3850  0.7066  0.3718   Biso    0.0050 Fe
 Fe   1.0000  0.3854  0.4896  0.4218   Biso    0.0050 Fe
 Fe   1.0000  0.3857  0.6485  0.3849   Biso    0.0050 Fe
 Fe   1.0000  0.3857  0.4239  0.6395   Biso    0.0050 Fe
 Fe   1.0000  0.3863  0.8260  0.2699   Biso    0.0050 Fe
 Fe   1.0000  0.3864  0.7844  0.4286   Biso    0.0050 Fe
 Fe   1.0000  0.3865  0.4089  0.3610   Biso    0.0050 Fe
 Fe   1.0000  0.3867  0.6672  0.6633   Biso    0.0050 Fe
 Fe   1.0000  0.3880  0.5425  0.6883   Biso    0.0050 Fe
 Fe   1.0000  0.3907  0.7377  0.2257   Biso    0.0050 Fe
 Fe   1.0000  0.3918  0.5195  0.5606   Biso    0.0050 Fe
 Fe   1.0000  0.3921  0.2099  0.7574   Biso    0.0050 Fe
 Fe   1.0000  0.3922  0.1897  0.4194   Biso    0.0050 Fe
 Fe   1.0000  0.3941  0.8899  0.4832   Biso    0.0050 Fe
 Fe   1.0000  0.3951  0.4349  0.8050   Biso    0.0050 Fe
 Fe   1.0000  0.3952  0.5904  0.3844   Biso    0.0050 Fe
 Fe   1.0000  0.3957  0.7839  0.8268   Biso    0.0050 Fe
 Fe   1.0000  0.3973  0.5123  0.1840   Biso    0.0050 Fe
 Fe   1.0000  0.3979  0.7298  0.4293   Biso    0.0050 Fe
 Fe   1.0000  0.3992  0.3787  0.6416   Biso    0.0050 Fe
 Fe   1.0000  0.4025  0.7946  0.4864   Biso    0.0050 Fe
 Fe   1.0000  0.4035  0.7314  0.6186   Biso    0.0050 Fe
 Fe   1.0000  0.4039  0.3645  0.3510   Biso    0.0050 Fe
 Fe   1.0000  0.4041  0.5911  0.5126   Biso    0.0050 Fe
 Fe   1.0000  0.4067  0.8752  0.2687   Biso    0.0050 Fe
 Fe   1.0000  0.4084  0.1818  0.5498   Biso    0.0050 Fe
 Fe   1.0000  0.4115  0.4760  0.6631   Biso    0.0050 Fe
 Fe   1.0000  0.4119  0.6378  0.4168   Biso    0.0050 Fe
 Fe   1.0000  0.4129  0.4889  0.7284   Biso    0.0050 Fe
 Fe   1.0000  0.4130  0.2231  0.6689   Biso    0.0050 Fe
 Fe   1.0000  0.4131  0.4293  0.4676   Biso    0.0050 Fe
 Fe   1.0000  0.4136  0.2400  0.5355   Biso    0.0050 Fe
 Fe   1.0000  0.4149  0.4725  0.1712   Biso    0.0050 Fe
 Fe   1.0000  0.4149  0.4815  0.5197   Biso    0.0050 Fe
 Fe   1.0000  0.4152  0.1477  0.6056   Biso    0.0050 Fe
 Fe   1.0000  0.4152  0.2625  0.6247   Biso    0.0050 Fe
 Fe   1.0000  0.4155  0.6793  0.6209   Biso    0.0050 Fe
 Fe   1.0000  0.4158  0.5794  0.4273   Biso    0.0050 Fe
 Fe   1.0000  0.4163  0.3417  0.6266   Biso    0.0050 Fe
 Fe   1.0000  0.4174  0.8036  0.2419   Biso    0.0050 Fe
 Fe   1.0000  0.4177  0.2813  0.5686   Biso    0.0050 Fe
 Fe   1.0000  0.4182  0.5434  0.3589   Biso    0.0050 Fe
 Fe   1.0000  0.4223  0.4079  0.5969   Biso    0.0050 Fe
 Fe   1.0000  0.4237  0.6285  0.5470   Biso    0.0050 Fe
 Fe   1.0000  0.4240  0.3867  0.3892   Biso    0.0050 Fe
 Fe   1.0000  0.4252  0.4323  0.6501   Biso    0.0050 Fe
 Fe   1.0000  0.4253  0.2337  0.4146   Biso    0.0050 Fe
 Fe   1.0000  0.4267  0.5962  0.3424   Biso    0.0050 Fe
 Fe   1.0000  0.4276  0.3916  0.5203   Biso    0.0050 Fe
 Fe   1.0000  0.4280  0.3140  0.6731   Biso    0.0050 Fe
 Fe   1.0000  0.4283  0.5445  0.4923   Biso    0.0050 Fe
 Fe   1.0000  0.4292  0.1489  0.6678   Biso    0.0050 Fe
 Fe   1.0000  0.4297  0.4087  0.7172   Biso    0.0050 Fe
 Fe   1.0000  0.4303  0.3751  0.3133   Biso    0.0050 Fe
 Fe   1.0000  0.4317  0.5685  0.6260   Biso    0.0050 Fe
 Fe   1.0000  0.4326  0.8600  0.5213   Biso    0.0050 Fe
 Fe   1.0000  0.4336  0.9236  0.5233   Biso    0.0050 Fe
 Fe   1.0000  0.4354  0.2760  0.5271   Biso    0.0050 Fe
 Fe   1.0000  0.4372  0.2071  0.4726   Biso    0.0050 Fe
 Fe   1.0000  0.4391  0.4453  0.3732   Biso    0.0050 Fe
 Fe   1.0000  0.4396  0.7705  0.4907   Biso    0.0050 Fe
 Fe   1.0000  0.4407  0.2807  0.4686   Biso    0.0050 Fe
 Fe   1.0000  0.4431  0.4140  0.4263   Biso    0.0050 Fe
 Fe   1.0000  0.4433  0.1336  0.7167   Biso    0.0050 Fe
 Fe   1.0000  0.4443  0.1976  0.6109   Biso    0.0050 Fe
 Fe   1.0000  0.4453  0.8525  0.3327   Biso    0.0050 Fe
 Fe   1.0000  0.4469  0.5529  0.5412   Biso    0.0050 Fe
 Fe   1.0000  0.4475  0.8047  0.3340   Biso    0.0050 Fe
 Fe   1.0000  0.4479  0.4060  0.6844   Biso    0.0050 Fe
 Fe   1.0000  0.4504  0.5117  0.3764   Biso    0.0050 Fe
 Fe   1.0000  0.4510  0.6721  0.2258   Biso    0.0050 Fe
 Fe   1.0000  0.4511  0.4645  0.5371   Biso    0.0050 Fe
 Fe   1.0000  0.4526  0.4307  0.4730   Biso    0.0050 Fe
 Fe   1.0000  0.4537  0.4673  0.4043   Biso    0.0050 Fe
 Fe   1.0000  0.4567  0.2894  0.4191   Biso    0.0050 Fe
 Fe   1.0000  0.4570  0.2626  0.6670   Biso    0.0050 Fe
 Fe   1.0000  0.4581  0.6914  0.4904   Biso    0.0050 Fe
 Fe   1.0000  0.4587  0.8259  0.3913   Biso    0.0050 Fe
 Fe   1.0000  0.4602  0.3989  0.6219   Biso    0.0050 Fe
 Fe   1.0000  0.4629  0.1397  0.6226   Biso    0.0050 Fe
 Fe   1.0000  0.4649  0.3784  0.4193   Biso    0.0050 Fe
 Fe   1.0000  0.4650  0.4417  0.5957   Biso    0.0050 Fe
 Fe   1.0000  0.4691  0.3564  0.6772   Biso    0.0050 Fe
 Fe   1.0000  0.4699  0.4157  0.3858   Biso    0.0050 Fe
 Fe   1.0000  0.4711  0.2542  0.5445   Biso    0.0050 Fe
 Fe   1.0000  0.4732  0.7854  0.3710   Biso    0.0050 Fe
 Fe   1.0000  0.4738  0.9371  0.2384   Biso    0.0050 Fe
 Fe   1.0000  0.4749  0.5020  0.5795   Biso    0.0050 Fe
 Fe   1.0000  0.4754  0.3406  0.4668   Biso    0.0050 Fe
 Fe   1.0000  0.4777  0.5715  0.4541   Biso    0.0050 Fe
 Fe   1.0000  0.4792  0.1253  0.6872   Biso    0.0050 Fe
 Fe   1.0000  0.4796  0.6141  0.2617   Biso    0.0050 Fe
 Fe   1.0000  0.4797  0.3247  0.5344   Biso    0.0050 Fe
 Fe   1.0000  0.4831  0.4745  0.6338   Biso    0.0050 Fe
 Fe   1.0000  0.4835  0.3334  0.7164   Biso    0.0050 Fe
 Fe   1.0000  0.4867  0.2966  0.6545   Biso    0.0050 Fe
 Fe   1.0000  0.4871  0.6694  0.3801   Biso    0.0050 Fe
 Fe   1.0000  0.4871  0.5026  0.5337   Biso    0.0050 Fe
 Fe   1.0000  0.4889  0.5237  0.4761   Biso    0.0050 Fe
 Fe   1.0000  0.4901  0.6346  0.1667   Biso    0.0050 Fe
 Fe   1.0000  0.4906  0.6631  0.1974   Biso    0.0050 Fe
 Fe   1.0000  0.4908  0.5131  0.2717   Biso    0.0050 Fe
 Fe   1.0000  0.4908  0.1848  0.6205   Biso    0.0050 Fe
 Fe   1.0000  0.4915  0.5313  0.6302   Biso    0.0050 Fe
 Fe   1.0000  0.4917  0.7100  0.4963   Biso    0.0050 Fe
 Fe   1.0000  0.4921  0.2764  0.5858   Biso    0.0050 Fe
 Fe   1.0000  0.4935  0.1983  0.5327   Biso    0.0050 Fe
 Fe   1.0000  0.4939  0.3810  0.4928   Biso    0.0050 Fe
 Fe   1.0000  0.4951  0.2700  0.7167   Biso    0.0050 Fe
 Fe   1.0000  0.4956  0.6652  0.5071   Biso    0.0050 Fe
 Fe   1.0000  0.5029  0.3450  0.4290   Biso    0.0050 Fe
 Fe   1.0000  0.5042  0.6342  0.6367   Biso    0.0050 Fe
 Fe   1.0000  0.5044  0.4789  0.4659   Biso    0.0050 Fe
 Fe   1.0000  0.5059  0.1989  0.7217   Biso    0.0050 Fe
 Fe   1.0000  0.5078  0.4759  0.6042   Biso    0.0050 Fe
 Fe   1.0000  0.5081  0.3289  0.4907   Biso    0.0050 Fe
 Fe   1.0000  0.5105  0.6039  0.4932   Biso    0.0050 Fe
 Fe   1.0000  0.5108  0.3954  0.5413   Biso    0.0050 Fe
 Fe   1.0000  0.5112  0.1349  0.6208   Biso    0.0050 Fe
 Fe   1.0000  0.5122  0.9620  0.0760   Biso    0.0050 Fe
 Fe   1.0000  0.5125  0.1881  0.7668   Biso    0.0050 Fe
 Fe   1.0000  0.5163  0.6666  0.3425   Biso    0.0050 Fe
 Fe   1.0000  0.5192  0.2336  0.7035   Biso    0.0050 Fe
 Fe   1.0000  0.5229  0.5769  0.5508   Biso    0.0050 Fe
 Fe   1.0000  0.5229  0.5623  0.2111   Biso    0.0050 Fe
 Fe   1.0000  0.5261  0.1641  0.4970   Biso    0.0050 Fe
 Fe   1.0000  0.5282  0.3440  0.6580   Biso    0.0050 Fe
 Fe   1.0000  0.5296  0.5804  0.6469   Biso    0.0050 Fe
 Fe   1.0000  0.5311  0.4805  0.4307   Biso    0.0050 Fe
 Fe   1.0000  0.5363  0.2867  0.5039   Biso    0.0050 Fe
 Fe   1.0000  0.5393  0.3226  0.5844   Biso    0.0050 Fe
 Fe   1.0000  0.5398  1.0000  0.0696   Biso    0.0050 Fe
 Fe   1.0000  0.5399  0.3996  0.6396   Biso    0.0050 Fe
 Fe   1.0000  0.5416  0.4787  0.5031   Biso    0.0050 Fe
 Fe   1.0000  0.5423  0.1546  0.7586   Biso    0.0050 Fe
 Fe   1.0000  0.5437  0.1982  0.5325   Biso    0.0050 Fe
 Fe   1.0000  0.5442  0.5921  0.2482   Biso    0.0050 Fe
 Fe   1.0000  0.5490  0.6227  0.6263   Biso    0.0050 Fe
 Fe   1.0000  0.5509  0.1667  0.4658   Biso    0.0050 Fe
 Fe   1.0000  0.5622  0.3990  0.5984   Biso    0.0050 Fe
 Fe   1.0000  0.5645  0.2055  0.3528   Biso    0.0050 Fe
 Fe   1.0000  0.5655  0.1748  0.5067   Biso    0.0050 Fe
 Fe   1.0000  0.5655  0.5562  0.6593   Biso    0.0050 Fe
 Fe   1.0000  0.5670  0.3566  0.7069   Biso    0.0050 Fe
 Fe   1.0000  0.5671  0.5429  0.6041   Biso    0.0050 Fe
 Fe   1.0000  0.5721  0.3830  0.5195   Biso    0.0050 Fe
 Fe   1.0000  0.5722  0.3709  0.4011   Biso    0.0050 Fe
 Fe   1.0000  0.5724  0.3262  0.5414   Biso    0.0050 Fe
 Fe   1.0000  0.5732  0.2916  0.4578   Biso    0.0050 Fe
 Fe   1.0000  0.5753  0.2890  0.3584   Biso    0.0050 Fe
 Fe   1.0000  0.5774  0.4587  0.5833   Biso    0.0050 Fe
 Fe   1.0000  0.5786  0.5295  0.5011   Biso    0.0050 Fe
 Fe   1.0000  0.5824  0.2989  0.6054   Biso    0.0050 Fe
 Fe   1.0000  0.5828  0.3099  0.4989   Biso    0.0050 Fe
 Fe   1.0000  0.5829  0.1213  0.6606   Biso    0.0050 Fe
 Fe   1.0000  0.5838  0.2357  0.4032   Biso    0.0050 Fe
 Fe   1.0000  0.5851  0.1309  0.5571   Biso    0.0050 Fe
 Fe   1.0000  0.5941  0.2335  0.4927   Biso    0.0050 Fe
 Fe   1.0000  0.5946  0.5927  0.5317   Biso    0.0050 Fe
 Fe   1.0000  0.5947  0.1509  0.4493   Biso    0.0050 Fe
 Fe   1.0000  0.5958  0.5266  0.6243   Biso    0.0050 Fe
 Fe   1.0000  0.5969  0.2887  0.7153   Biso    0.0050 Fe
 Fe   1.0000  0.5974  0.4127  0.5001   Biso    0.0050 Fe
 Fe   1.0000  0.5976  0.5400  0.4622   Biso    0.0050 Fe
 Fe   1.0000  0.6004  0.5867  0.5858   Biso    0.0050 Fe
 Fe   1.0000  0.6028  0.3702  0.6246   Biso    0.0050 Fe
 Fe   1.0000  0.6041  0.1469  0.4875   Biso    0.0050 Fe
 Fe   1.0000  0.6063  0.2385  0.3419   Biso    0.0050 Fe
 Fe   1.0000  0.6153  0.4379  0.5988   Biso    0.0050 Fe
 Fe   1.0000  0.6159  0.2187  0.4422   Biso    0.0050 Fe
 Fe   1.0000  0.6163  0.6066  0.6311   Biso    0.0050 Fe
 Fe   1.0000  0.6183  0.4130  0.5287   Biso    0.0050 Fe
 Fe   1.0000  0.6318  0.4653  0.5109   Biso    0.0050 Fe
 Fe   1.0000  0.6325  0.3878  0.4501   Biso    0.0050 Fe
 Fe   1.0000  0.6325  0.3828  0.5863   Biso    0.0050 Fe
 Fe   1.0000  0.6328  0.5627  0.5044   Biso    0.0050 Fe
 Fe   1.0000  0.6352  0.2576  0.0654   Biso    0.0050 Fe
 Fe   1.0000  0.6464  0.2834  0.5872   Biso    0.0050 Fe
 Fe   1.0000  0.6466  0.4886  0.5411   Biso    0.0050 Fe
 Fe   1.0000  0.6515  0.2933  0.5037   Biso    0.0050 Fe
 Fe   1.0000  0.6534  0.3338  0.5686   Biso    0.0050 Fe
 Fe   1.0000  0.6572  0.4624  0.4663   Biso    0.0050 Fe
 Fe   1.0000  0.6581  0.1719  0.4380   Biso    0.0050 Fe
 Fe   1.0000  0.6603  0.3924  0.5472   Biso    0.0050 Fe
 Fe   1.0000  0.6604  0.5325  0.5155   Biso    0.0050 Fe
 Fe   1.0000  0.6633  0.5209  0.5800   Biso    0.0050 Fe
 Fe   1.0000  0.6696  0.4044  0.5040   Biso    0.0050 Fe
 Fe   1.0000  0.6698  0.4392  0.6520   Biso    0.0050 Fe
 Fe   1.0000  0.6723  0.4234  0.4543   Biso    0.0050 Fe
 Fe   1.0000  0.6762  0.4679  0.5824   Biso    0.0050 Fe
 Fe   1.0000  0.6767  0.1724  0.1856   Biso    0.0050 Fe
 Fe   1.0000  0.6809  0.2373  0.1340   Biso    0.0050 Fe
 Fe   1.0000  0.6809  0.4676  0.4315   Biso    0.0050 Fe
 Fe   1.0000  0.6824  0.4940  0.5102   Biso    0.0050 Fe
 Fe   1.0000  0.6832  0.3916  0.5125   Biso    0.0050 Fe
 Fe   1.0000  0.6943  0.3717  0.5664   Biso    0.0050 Fe
 Fe   1.0000  0.6999  0.3387  0.4945   Biso    0.0050 Fe
 Fe   1.0000  0.7011  0.7055  0.4234   Biso    0.0050 Fe
 Fe   1.0000  0.7044  0.4965  0.6025   Biso    0.0050 Fe
 Fe   1.0000  0.7051  0.6669  0.5850   Biso    0.0050 Fe
 Fe   1.0000  0.7074  0.1310  0.7723   Biso    0.0050 Fe
 Fe   1.0000  0.7150  0.4031  0.6038   Biso    0.0050 Fe
 Fe   1.0000  0.7173  0.3198  0.5481   Biso    0.0050 Fe
 Fe   1.0000  0.7175  0.5343  0.5095   Biso    0.0050 Fe
 Fe   1.0000  0.7253  0.7009  0.6078   Biso    0.0050 Fe
 Fe   1.0000  0.7254  0.5048  0.4355   Biso    0.0050 Fe
 Fe   1.0000  0.7259  0.6589  0.5374   Biso    0.0050 Fe
 Fe   1.0000  0.7315  0.5678  0.4810   Biso    0.0050 Fe
 Fe   1.0000  0.7327  0.5003  0.5665   Biso    0.0050 Fe
 Fe   1.0000  0.7329  0.6477  0.6066   Biso    0.0050 Fe
 Fe   1.0000  0.7332  0.6318  0.4695   Biso    0.0050 Fe
 Fe   1.0000  0.7352  0.5683  0.4097   Biso    0.0050 Fe
 Fe   1.0000  0.7421  0.8103  0.6478   Biso    0.0050 Fe
 Fe   1.0000  0.7544  0.7293  0.4684   Biso    0.0050 Fe
 Fe   1.0000  0.7577  0.5119  0.5276   Biso    0.0050 Fe
 Fe   1.0000  0.7651  0.1197  0.4895   Biso    0.0050 Fe
 Fe   1.0000  0.7668  0.7473  0.5961   Biso    0.0050 Fe
 Fe   1.0000  0.7672  0.4596  0.6583   Biso    0.0050 Fe
 Fe   1.0000  0.7704  0.1647  0.1118   Biso    0.0050 Fe
 Fe   1.0000  0.7786  0.5594  0.4661   Biso    0.0050 Fe
 Fe   1.0000  0.7794  0.1483  0.2732   Biso    0.0050 Fe
 Fe   1.0000  0.7801  0.3856  0.5882   Biso    0.0050 Fe
 Fe   1.0000  0.7802  0.5510  0.5643   Biso    0.0050 Fe
 Fe   1.0000  0.7813  0.4368  0.7225   Biso    0.0050 Fe
 Fe   1.0000  0.7841  0.7499  0.5169   Biso    0.0050 Fe
 Fe   1.0000  0.7852  0.5015  0.5561   Biso    0.0050 Fe
 Fe   1.0000  0.7855  0.6459  0.6133   Biso    0.0050 Fe
 Fe   1.0000  0.7905  0.7049  0.4463   Biso    0.0050 Fe
 Fe   1.0000  0.7911  0.2324  0.0000   Biso    0.0050 Fe
 Fe   1.0000  0.7914  0.6808  0.5106   Biso    0.0050 Fe
 Fe   1.0000  0.7939  0.1369  0.4580   Biso    0.0050 Fe
 Fe   1.0000  0.7944  0.6305  0.6548   Biso    0.0050 Fe
 Fe   1.0000  0.7949  0.5799  0.6039   Biso    0.0050 Fe
 Fe   1.0000  0.7956  0.4189  0.4916   Biso    0.0050 Fe
 Fe   1.0000  0.7988  0.4531  0.6952   Biso    0.0050 Fe
 Fe   1.0000  0.7992  0.1138  0.5718   Biso    0.0050 Fe
 Fe   1.0000  0.8049  0.4681  0.4750   Biso    0.0050 Fe
 Fe   1.0000  0.8091  0.7906  0.5928   Biso    0.0050 Fe
 Fe   1.0000  0.8139  0.5094  0.5896   Biso    0.0050 Fe
 Fe   1.0000  0.8148  0.7848  0.5211   Biso    0.0050 Fe
 Fe   1.0000  0.8156  0.1220  0.4980   Biso    0.0050 Fe
 Fe   1.0000  0.8160  0.2258  0.1055   Biso    0.0050 Fe
 Fe   1.0000  0.8210  0.6825  0.4691   Biso    0.0050 Fe
 Fe   1.0000  0.8237  0.6230  0.4537   Biso    0.0050 Fe
 Fe   1.0000  0.8383  0.7235  0.9180   Biso    0.0050 Fe
 Fe   1.0000  0.8387  0.1056  0.5866   Biso    0.0050 Fe
 Fe   1.0000  0.8389  0.4557  0.5623   Biso    0.0050 Fe
 Fe   1.0000  0.8441  0.3358  0.7202   Biso    0.0050 Fe
 Fe   1.0000  0.8452  0.4978  0.4705   Biso    0.0050 Fe
 Fe   1.0000  0.8571  0.4085  0.5563   Biso    0.0050 Fe
 Fe   1.0000  0.8578  0.6164  0.5023   Biso    0.0050 Fe
 Fe   1.0000  0.8622  0.3441  0.5596   Biso    0.0050 Fe
 Fe   1.0000  0.8635  0.7704  0.8807   Biso    0.0050 Fe
 Fe   1.0000  0.8714  0.6450  0.9461   Biso    0.0050 Fe
 Fe   1.0000  0.8720  0.6531  0.5434   Biso    0.0050 Fe
 Fe   1.0000  0.8742  0.5684  0.4853   Biso    0.0050 Fe
 Fe   1.0000  0.8767  0.7029  0.9467   Biso    0.0050 Fe
 Fe   1.0000  0.8806  0.5559  0.5467   Biso    0.0050 Fe
 Fe   1.0000  0.8822  0.4248  0.4570   Biso    0.0050 Fe
 Fe   1.0000  0.8860  0.3794  0.4513   Biso    0.0050 Fe
 Fe   1.0000  0.8950  0.6949  0.8899   Biso    0.0050 Fe
 Fe   1.0000  0.8952  0.6353  0.8981   Biso    0.0050 Fe
 Fe   1.0000  0.9014  0.6290  0.9993   Biso    0.0050 Fe
 Fe   1.0000  0.9113  0.7053  0.8602   Biso    0.0050 Fe
 Fe   1.0000  0.9116  0.1257  0.3027   Biso    0.0050 Fe
 Fe   1.0000  0.9253  0.1085  0.4083   Biso    0.0050 Fe
 Fe   1.0000  0.9324  0.2621  0.3868   Biso    0.0050 Fe
 Fe   1.0000  0.9386  0.2033  0.4439   Biso    0.0050 Fe
 Fe   1.0000  0.9387  0.6158  0.7617   Biso    0.0050 Fe
 Fe   1.0000  0.9408  0.6284  0.8836   Biso    0.0050 Fe
 Fe   1.0000  0.9413  0.2065  0.4031   Biso    0.0050 Fe
 Fe   1.0000  0.9453  0.6546  0.7878   Biso    0.0050 Fe
 Fe   1.0000  0.9472  0.1301  0.4400   Biso    0.0050 Fe
 Fe   1.0000  0.9515  0.6271  0.8150   Biso    0.0050 Fe
 Fe   1.0000  0.9665  0.3259  0.3217   Biso    0.0050 Fe
 Fe   1.0000  0.9666  0.5915  0.8810   Biso    0.0050 Fe
 Fe   1.0000  0.9742  0.2336  0.4124   Biso    0.0050 Fe
 Fe   1.0000  0.9794  0.0637  0.7470   Biso    0.0050 Fe
 Fe   1.0000  0.9798  0.1698  0.0720   Biso    0.0050 Fe
 Fe   1.0000  0.9836  0.6638  0.8450   Biso    0.0050 Fe
 Fe   1.0000  0.9850  0.1823  0.4257   Biso    0.0050 Fe
 Fe   1.0000  0.9909  0.6098  0.8500   Biso    0.0050 Fe
 Fe   1.0000  0.9924  0.2202  0.3568   Biso    0.0050 Fe
 Fe   1.0000  0.9979  0.0307  0.9453   Biso    0.0050 Fe
 Fe   1.0000  1.0000  0.2162  0.0736   Biso    0.0050 Fe

